positions:  ['0.0 0.0 0.0\r\n', '0.5 0.5 0.5\r\n', '0.0 0.0 0.799856\r\n', '0.0 0.0 0.200144\r\n', '0.5 0.5 0.299856\r\n', '0.5 0.5 0.700144\r\n', '0.5 0.0 0.9011519999999998\r\n', '0.0 0.5 0.9011519999999998\r\n', '0.5 0.0 0.098848\r\n', '0.0 0.5 0.098848\r\n', '0.0 0.5 0.401152\r\n', '0.5 0.0 0.401152\r\n', '0.0 0.5 0.598848\r\n', '0.5 0.0 0.598848\r\n', '0.0 0.0 0.5\r\n', '0.5 0.5 0.0\r\n', '0.0 0.0 0.685062\r\n', '0.0 0.0 0.314938\r\n', '0.5 0.5 0.185062\r\n', '0.5 0.5 0.814938\r\n', '0.0 0.0 0.89909\r\n', '0.0 0.0 0.10091\r\n', '0.5 0.5 0.39909\r\n', '0.5 0.5 0.60091\r\n']
posns:  [[0.       0.       0.      ]
 [0.5      0.5      0.5     ]
 [0.       0.       0.799856]
 [0.       0.       0.200144]
 [0.5      0.5      0.299856]
 [0.5      0.5      0.700144]
 [0.5      0.       0.901152]
 [0.       0.5      0.901152]
 [0.5      0.       0.098848]
 [0.       0.5      0.098848]
 [0.       0.5      0.401152]
 [0.5      0.       0.401152]
 [0.       0.5      0.598848]
 [0.5      0.       0.598848]
 [0.       0.       0.5     ]
 [0.5      0.5      0.      ]
 [0.       0.       0.685062]
 [0.       0.       0.314938]
 [0.5      0.5      0.185062]
 [0.5      0.5      0.814938]
 [0.       0.       0.89909 ]
 [0.       0.       0.10091 ]
 [0.5      0.5      0.39909 ]
 [0.5      0.5      0.60091 ]]
# CIF file created by FINDSYM, version 7.0

data_findsym-output
_audit_creation_method FINDSYM
 
_cell_length_a    3.8365030000
_cell_length_b    3.8365030000
_cell_length_c    19.4008069000
_cell_angle_alpha 90.0000000000
_cell_angle_beta  90.0000000000
_cell_angle_gamma 90.0000000000
_cell_volume      285.5557287824
 
_symmetry_space_group_name_H-M "I 4/m 2/m 2/m"
_symmetry_Int_Tables_number 139
_space_group.reference_setting '139:-I 4 2'
_space_group.transform_Pp_abc a,b,c;0,0,0
 
loop_
_space_group_symop_id
_space_group_symop_operation_xyz
1 x,y,z
2 x,-y,-z
3 -x,y,-z
4 -x,-y,z
5 -y,-x,-z
6 -y,x,z
7 y,-x,z
8 y,x,-z
9 -x,-y,-z
10 -x,y,z
11 x,-y,z
12 x,y,-z
13 y,x,z
14 y,-x,-z
15 -y,x,-z
16 -y,-x,z
17 x+1/2,y+1/2,z+1/2
18 x+1/2,-y+1/2,-z+1/2
19 -x+1/2,y+1/2,-z+1/2
20 -x+1/2,-y+1/2,z+1/2
21 -y+1/2,-x+1/2,-z+1/2
22 -y+1/2,x+1/2,z+1/2
23 y+1/2,-x+1/2,z+1/2
24 y+1/2,x+1/2,-z+1/2
25 -x+1/2,-y+1/2,-z+1/2
26 -x+1/2,y+1/2,z+1/2
27 x+1/2,-y+1/2,z+1/2
28 x+1/2,y+1/2,-z+1/2
29 y+1/2,x+1/2,z+1/2
30 y+1/2,-x+1/2,-z+1/2
31 -y+1/2,x+1/2,-z+1/2
32 -y+1/2,-x+1/2,z+1/2
 
loop_
_atom_site_label
_atom_site_type_symbol
_atom_site_symmetry_multiplicity
_atom_site_Wyckoff_label
_atom_site_fract_x
_atom_site_fract_y
_atom_site_fract_z
_atom_site_occupancy
_atom_site_fract_symmform
O1  O    2 a 0.00000 0.00000 0.00000 1.00000 0,0,0  
O2  O    4 e 0.00000 0.00000 0.79986 1.00000 0,0,Dz 
O3  O    8 g 0.00000 0.50000 0.40115 1.00000 0,0,Dz 
Ca1 Ca   2 b 0.00000 0.00000 0.50000 1.00000 0,0,0  
Ca2 Ca   4 e 0.00000 0.00000 0.68506 1.00000 0,0,Dz 
Ti1 Ti   4 e 0.00000 0.00000 0.89909 1.00000 0,0,Dz 
 
# end of cif
