# CIF file created by FINDSYM, version 7.0

data_findsym-output
_audit_creation_method FINDSYM
 
_cell_length_a    19.2900528000
_cell_length_b    5.3876381000
_cell_length_c    5.4477001000
_cell_angle_alpha 90.0000000000
_cell_angle_beta  90.0000000000
_cell_angle_gamma 90.0000000000
_cell_volume      566.1676140177
 
_symmetry_space_group_name_H-M "C m c 21"
_symmetry_Int_Tables_number 36
_space_group.reference_setting '036:C 2c -2'
_space_group.transform_Pp_abc a,b,c;0,0,0
 
loop_
_space_group_symop_id
_space_group_symop_operation_xyz
1 x,y,z
2 -x,-y,z+1/2
3 -x,y,z
4 x,-y,z+1/2
5 x+1/2,y+1/2,z
6 -x+1/2,-y+1/2,z+1/2
7 -x+1/2,y+1/2,z
8 x+1/2,-y+1/2,z+1/2
 
loop_
_atom_site_label
_atom_site_type_symbol
_atom_site_symmetry_multiplicity
_atom_site_Wyckoff_label
_atom_site_fract_x
_atom_site_fract_y
_atom_site_fract_z
_atom_site_occupancy
_atom_site_fract_symmform
O1  O    4 a 0.00000 0.67560 -0.04976 1.00000 0,Dy,Dz  
O2  O    8 b 0.69787 0.31715 -0.01074 1.00000 Dx,Dy,Dz 
O3  O    8 b 0.11285 0.45905 0.17807  1.00000 Dx,Dy,Dz 
O4  O    8 b 0.08368 0.04016 0.75977  1.00000 Dx,Dy,Dz 
Ca1 Ca   4 a 0.00000 0.24533 0.00717  1.00000 0,Dy,Dz  
Ca2 Ca   8 b 0.81229 0.24135 -0.07522 1.00000 Dx,Dy,Dz 
Ti1 Ti   8 b 0.59975 0.25004 -0.03959 1.00000 Dx,Dy,Dz 
 
# end of cif
