# CIF file created by FINDSYM, version 7.0

data_findsym-output
_audit_creation_method FINDSYM
 
_cell_length_a    19.1334162000
_cell_length_b    5.4783581000
_cell_length_c    5.3986206000
_cell_angle_alpha 90.0000000000
_cell_angle_beta  90.0000000000
_cell_angle_gamma 90.0000000000
_cell_volume      565.8818220458
 
_symmetry_space_group_name_H-M "C 2/m 2/c 21/m"
_symmetry_Int_Tables_number 63
_space_group.reference_setting '063:-C 2c 2'
_space_group.transform_Pp_abc a,b,c;0,0,0
 
loop_
_space_group_symop_id
_space_group_symop_operation_xyz
1 x,y,z
2 x,-y,-z
3 -x,y,-z+1/2
4 -x,-y,z+1/2
5 -x,-y,-z
6 -x,y,z
7 x,-y,z+1/2
8 x,y,-z+1/2
9 x+1/2,y+1/2,z
10 x+1/2,-y+1/2,-z
11 -x+1/2,y+1/2,-z+1/2
12 -x+1/2,-y+1/2,z+1/2
13 -x+1/2,-y+1/2,-z
14 -x+1/2,y+1/2,z
15 x+1/2,-y+1/2,z+1/2
16 x+1/2,y+1/2,-z+1/2
 
loop_
_atom_site_label
_atom_site_type_symbol
_atom_site_symmetry_multiplicity
_atom_site_Wyckoff_label
_atom_site_fract_x
_atom_site_fract_y
_atom_site_fract_z
_atom_site_occupancy
_atom_site_fract_symmform
O1  O    4 c 0.00000 0.16880 0.25000 1.00000 0,Dy,0  
O2  O    8 g 0.80112 0.32023 0.25000 1.00000 Dx,Dy,0 
O3  O    8 e 0.41668 0.00000 0.00000 1.00000 Dx,0,0  
O4  O    8 e 0.11495 0.00000 0.00000 1.00000 Dx,0,0  
Ca1 Ca   4 c 0.00000 0.74046 0.25000 1.00000 0,Dy,0  
Ca2 Ca   8 g 0.68651 0.23534 0.25000 1.00000 Dx,Dy,0 
Ti1 Ti   8 g 0.89967 0.24685 0.25000 1.00000 Dx,Dy,0 
 
# end of cif
